Version 4
SHEET 1 1888 680
WIRE 992 -32 640 -32
WIRE 992 -16 992 -32
WIRE 640 32 640 -32
WIRE 992 160 992 144
WIRE 640 256 640 112
WIRE 992 256 992 240
WIRE 992 256 640 256
WIRE 640 320 640 256
FLAG 640 320 0
SYMBOL Misc\\EuropeanResistor 976 144 R0
SYMATTR InstName R1
SYMATTR Value 50
SYMBOL voltage 640 16 R0
WINDOW 3 24 96 Invisible 2
WINDOW 123 24 124 Left 2
WINDOW 39 0 0 Left 0
SYMATTR Value SINE(0 4 1k 0 0 0 50)
SYMATTR Value2 AC 0 0
SYMATTR InstName V1
SYMBOL blackbox 1024 -16 R90
SYMATTR InstName U1
SYMATTR Value BlackBox1
TEXT 528 368 Left 2 !.tran 0 0.1 0 0.00001
TEXT 1080 48 Left 2 !.lib C:\\Users\\ahuss\\Documents\\LTspiceXVII\\lib\\sym\\blackbox1.sub
TEXT 432 80 Left 2 ;U0
TEXT 1104 -16 Left 2 ;Uc
TEXT 1120 208 Left 2 ;Urm
LINE Normal 496 192 496 -16 2
LINE Normal 416 144 496 192 2
LINE Normal 528 128 496 192 2
LINE Normal 1072 112 1072 -64 2
LINE Normal 1088 96 1072 112 2
LINE Normal 1056 80 1072 112 2
LINE Normal 1088 272 1088 176 2
LINE Normal 1072 224 1088 272 2
LINE Normal 1104 240 1088 272 2
